[General]
scheduler-class = "inet::RealTimeScheduler"
sim-time-limit = 1000s
cmdenv-express-mode = true



**.sctp.crcMode = "computed"
**.*Host.udp.crcMode = "computed"
**.host.udp.crcMode = "computed"
**.ipv4.**.crcMode = "computed"



[Config VideoStreaming]
network = VideoStreamingShowcase

*.*Host.numExtInterfaces = 1

*.incomingHost.ext[*].ext.device = "eth0"
*.incomingHost.ext[*].ext.filterString = "udp and ip dst host 10.1.1.3"
*.incomingHost.ext[*].ext.mtu = 1500B

*.outgoingHost.ext[*].ext.device = "eth0"
*.outgoingHost.ext[*].ext.filterString = "udp and ip src host 10.1.1.2"
*.outgoingHost.ext[*].ext.mtu = 1500B

*.outgoingHost.numApps = 1

*.outgoingHost.app[0].typename = "UdpForwardApp"
*.outgoingHost.app[0].localPort = 4004
*.outgoingHost.app[0].destAddress = "192.168.1.52"
*.outgoingHost.app[0].destPort = 5005

*.configurator.config = xmldoc("config.xml")

**.forwarding = true
**.proxyARP = true



[Config VideoStreamingForward]
network = VideoStreamingShowcase

*.*Host.numExtInterfaces = 1

*.incomingHost.ext[*].ext.device = "eth0"
*.incomingHost.ext[*].ext.filterString = "udp and ip dst host 10.1.1.2"
*.incomingHost.ext[*].ext.mtu = 1500B

*.outgoingHost.ext[*].ext.device = "eth0"
*.outgoingHost.ext[*].ext.filterString = "udp and ip src host 10.1.1.2"
*.outgoingHost.ext[*].ext.mtu = 1500B

*.outgoingHost.numApps = 1

*.outgoingHost.app[0].typename = "UdpForwardApp"
*.outgoingHost.app[0].localPort = 4000
*.outgoingHost.app[0].destAddress = "192.168.1.52"
*.outgoingHost.app[0].destPort = 5005



*.incomingHost.numApps = 1

*.incomingHost.app[0].typename = "UdpForwardApp"
*.incomingHost.app[0].localPort = 4004
*.incomingHost.app[0].destAddress = "10.1.1.3"
*.incomingHost.app[0].destPort = 4000




*.configurator.config = xmldoc("config.xml")

[Config VideoStreaming3]
network = VideoStreamingShowcase
description = "incomingHost routes UDP packets to outgoingHost, which performs NAT"

*.*Host.numExtInterfaces = 1

*.incomingHost.ext[*].ext.device = "eth0"
*.incomingHost.ext[*].ext.filterString = "udp and ip dst host 10.1.1.3"
*.incomingHost.ext[*].ext.mtu = 1500B

*.outgoingHost.ext[*].ext.device = "eth0"
*.outgoingHost.ext[*].ext.filterString = "udp and ip src host 10.1.1.99"
*.outgoingHost.ext[*].ext.mtu = 1500B

*.outgoingHost.numApps = 1

*.outgoingHost.app[0].typename = "UdpForwardApp"
*.outgoingHost.app[0].localPort = 4004
*.outgoingHost.app[0].destAddress = "192.168.1.52"
*.outgoingHost.app[0].destPort = 5005

*.configurator.config = xmldoc("config2.xml")

*.visualizer.*.interfaceTableVisualizer.displayInterfaceTables = true

**.forwarding = true

[Config VideoStreaming4]
network = VideoStreamingShowcase

[Config VideoStreaming5]
network = VideoStreamingShowcaseOneHost
description = "just one host, performs NAT"

*.host.numExtInterfaces = 1

*.host.ext[*].ext.device = "eth0"
*.host.ext[*].ext.filterString = "udp and ip dst host 10.1.1.3"
*.host.ext[*].ext.mtu = 1500B

*.host.numApps = 1

*.host.app[0].typename = "UdpForwardApp"
*.host.app[0].localPort = 4004
*.host.app[0].destAddress = "192.168.1.52"
*.host.app[0].destPort = 5005

*.configurator.config = xmldoc("config3.xml")

*.visualizer.*.interfaceTableVisualizer.displayInterfaceTables = true

**.forwarding = true