[General]
network = DirectionalAntennaShowcaseA
sim-time-limit = 360s

**.arp.typename = "GlobalArp"

**.mgmt.typename = "Ieee80211MgmtAdhoc"
**.agent.typename = ""

*.source.numApps = 1
*.source.app[0].typename = "PingApp"
*.source.app[0].destAddr = "destination"
*.source.app[0].sendInterval = 0.5s

*.source.wlan[*].radio.antenna.beamWidth = 30deg
*.source.wlan[*].radio.antenna.maxGain = 10dB
*.source.wlan[*].radio.antenna.minGain = -50dB

**.visualizer.*.radioVisualizer.displayRadios = true
**.visualizer.*.radioVisualizer.displayAntennaLobes = true

**.visualizer.*.radioVisualizer.displayReceptionState = true
**.visualizer.*.mediumVisualizer.displaySignalArrivals = true

**.visualizer.*.dataLinkVisualizer.displayLinks = true

*.destination.mobility.typename = "CircleMobility"
*.destination.mobility.cx = 400m
*.destination.mobility.cy = 200m
*.destination.mobility.r = 150m	
*.destination.mobility.startAngle = 90deg
*.destination.mobility.speed = -2.61799387799mps

*.destination.mobility.startAngle = 90deg

*.source.wlan[*].radio.antenna.typename = ${antennaType = "IsotropicAntenna", "ParabolicAntenna", "DipoleAntenna", "CosineAntenna"}
*.source.mobility.initialElevation = ${antennaType} == "DipoleAntenna" ? 90deg : 0deg
*.source.mobility.initialBank = ${antennaType} == "DipoleAntenna" ? 90deg : 0deg

*.source.wlan[*].radio.antenna.length = 0.1m
